
sim: ** starting performance simulation **

sim: ** simulation statistics **
sim_num_insn                1000000 # total number of instructions committed
sim_num_refs                 237804 # total number of loads and stores committed
sim_num_loads                141861 # total number of loads committed
sim_num_stores           95943.0000 # total number of stores committed
sim_num_branches             186004 # total number of branches committed
sim_elapsed_time                  1 # total simulation time in seconds
sim_inst_rate          1000000.0000 # simulation speed (in insts/sec)
sim_total_insn              1120358 # total number of instructions executed
sim_total_refs               273392 # total number of loads and stores executed
sim_total_loads              169280 # total number of loads executed
sim_total_stores        104112.0000 # total number of stores executed
sim_total_branches           195439 # total number of branches executed
sim_cycle                    492521 # total simulation time in cycles
sim_IPC                      2.0304 # instructions per cycle
sim_CPI                      0.4925 # cycles per instruction
sim_exec_BW                  2.2747 # total instructions (mis-spec + committed) per cycle
sim_IPB                      5.3762 # instruction per branch
IFQ_count                   1468152 # cumulative IFQ occupancy
IFQ_fcount                   303664 # cumulative IFQ full count
ifq_occupancy                2.9809 # avg IFQ occupancy (insn's)
ifq_rate                     2.2747 # avg IFQ dispatch rate (insn/cycle)
ifq_latency                  1.3104 # avg IFQ occupant latency (cycle's)
ifq_full                     0.6166 # fraction of time (cycle's) IFQ was full
RUU_count                   5894991 # cumulative RUU occupancy
RUU_fcount                   160659 # cumulative RUU full count
ruu_occupancy               11.9690 # avg RUU occupancy (insn's)
ruu_rate                     2.2747 # avg RUU dispatch rate (insn/cycle)
ruu_latency                  5.2617 # avg RUU occupant latency (cycle's)
ruu_full                     0.3262 # fraction of time (cycle's) RUU was full
LSQ_count                   1412556 # cumulative LSQ occupancy
LSQ_fcount                    39457 # cumulative LSQ full count
lsq_occupancy                2.8680 # avg LSQ occupancy (insn's)
lsq_rate                     2.2747 # avg LSQ dispatch rate (insn/cycle)
lsq_latency                  1.2608 # avg LSQ occupant latency (cycle's)
lsq_full                     0.0801 # fraction of time (cycle's) LSQ was full
sim_slip                    8074592 # total number of slip cycles
avg_sim_slip                 8.0746 # the average slip between issue and retirement
bpred_bimod.lookups          210647 # total number of bpred lookups
bpred_bimod.updates          186000 # total number of updates
bpred_bimod.addr_hits        176461 # total number of address-predicted hits
bpred_bimod.dir_hits         177395 # total number of direction-predicted hits (includes addr-hits)
bpred_bimod.misses             8605 # total number of misses
bpred_bimod.jr_hits            7535 # total number of address-predicted hits for JR's
bpred_bimod.jr_seen            7961 # total number of JR's seen
bpred_bimod.jr_non_ras_hits.PP            0 # total number of address-predicted hits for non-RAS JR's
bpred_bimod.jr_non_ras_seen.PP            3 # total number of non-RAS JR's seen
bpred_bimod.bpred_addr_rate    0.9487 # branch address-prediction rate (i.e., addr-hits/updates)
bpred_bimod.bpred_dir_rate    0.9537 # branch direction-prediction rate (i.e., all-hits/updates)
bpred_bimod.bpred_jr_rate    0.9465 # JR address-prediction rate (i.e., JR addr-hits/JRs seen)
bpred_bimod.bpred_jr_non_ras_rate.PP    0.0000 # non-RAS JR addr-pred rate (ie, non-RAS JR hits/JRs seen)
bpred_bimod.retstack_pushes         8614 # total number of address pushed onto ret-addr stack
bpred_bimod.retstack_pops         8574 # total number of address popped off of ret-addr stack
bpred_bimod.used_ras.PP         7958 # total number of RAS predictions used
bpred_bimod.ras_hits.PP         7535 # total number of RAS hits
bpred_bimod.ras_rate.PP    0.9468 # RAS prediction rate (i.e., RAS hits/used RAS)
