===== CORE CPU METRICS =====
sim_cycle                    882049 # total simulation time in cycles
sim_num_insn                1000001 # total number of instructions committed
sim_num_refs                 408446 # total number of loads and stores committed
sim_num_loads                255369 # total number of loads committed
sim_num_stores          153077.0000 # total number of stores committed
sim_num_branches             177570 # total number of branches committed
sim_inst_rate          1000001.0000 # simulation speed (in insts/sec)
sim_CPI                      0.8820 # cycles per instruction
sim_IPC                      1.1337 # instructions per cycle
ruu_occupancy                7.1417 # avg RUU occupancy (insn's)

===== CACHE METRICS =====
bpred_bimod.misses            14499 # total number of misses
il1.accesses                1120818 # total number of accesses
il1.hits                    1075002 # total number of hits
il1.misses                    45816 # total number of misses
il1.miss_rate                0.0409 # miss rate (i.e., misses/ref)
dl1.accesses                 379803 # total number of accesses
dl1.hits                     373738 # total number of hits
dl1.misses                     6065 # total number of misses
dl1.miss_rate                0.0160 # miss rate (i.e., misses/ref)
dl2.accesses                  56330 # total number of accesses
dl2.hits                      48460 # total number of hits
dl2.misses                     7870 # total number of misses
dl2.miss_rate                0.1397 # miss rate (i.e., misses/ref)
itlb.accesses               1120818 # total number of accesses
itlb.hits                   1120520 # total number of hits
itlb.misses                     298 # total number of misses
itlb.miss_rate               0.0003 # miss rate (i.e., misses/ref)
dtlb.accesses                414675 # total number of accesses
dtlb.hits                    414599 # total number of hits
dtlb.misses                      76 # total number of misses
dtlb.miss_rate               0.0002 # miss rate (i.e., misses/ref)
